      19
 i =       0, E =      -77.8156113856
  C         6.9398968554        8.6749130559        7.4752081273
  C         8.1400295722        7.9557039357        7.3746804117
  C         8.1537700147        6.4413597580        7.2774962592
  C         6.8529825112        5.8226415923        7.8142836579
  C         5.6319302161        6.5122137634        7.1874966184
  C         5.5959324722        8.0049991617        7.5518427436
  H         9.0213470454        6.0430136361        7.8247520270
  H         6.8343845179        4.7439969545        7.6027094249
  H         4.7003192846        6.0294007024        7.5142759699
  H         4.8958914367        8.5711531648        6.9194614712
  O         6.9339067095        9.9863776753        7.5482922558
  C         9.3388809737        8.7073204288        7.3873447105
  O         9.3773484818        9.9877926428        7.4628356846
  H        10.3013822889        8.1753564816        7.3411605589
  H         8.0564131328       10.2574606317        7.5199652358
  H         5.2350696793        8.1436535175        8.5850514607
  H         5.6730205579        6.3992533964        6.0950611709
  H         6.8144820377        5.9302475881        8.9075842945
  H         8.2898478490        6.1332614473        6.2286289011
      19
 i =       1, E =      -77.8160951443
  C         6.9418869920        8.6748555184        7.4753953944
  C         8.1393465592        7.9577612523        7.3755332534
  C         8.1535088343        6.4426957805        7.2775645229
  C         6.8531999824        5.8218590823        7.8134673802
  C         5.6321630411        6.5117555445        7.1883437331
  C         5.5958502852        8.0040934813        7.5522499303
  H         9.0219385847        6.0423695614        7.8226468240
  H         6.8348709704        4.7439021486        7.6029934543
  H         4.7005346518        6.0290675213        7.5146432745
  H         4.8946906062        8.5707313750        6.9207649681
  O         6.9587932934        9.9939066419        7.5480152665
  C         9.3368255237        8.7085094500        7.3883310840
  O         9.3673372357        9.9892755229        7.4649901228
  H        10.3015875676        8.1758927227        7.3426545036
  H         8.0549555412       10.2469880964        7.5189151149
  H         5.2360223508        8.1428164053        8.5860026136
  H         5.6730955064        6.3990082066        6.0953493931
  H         6.8152557168        5.9304489190        8.9076914552
  H         8.2882004665        6.1339724475        6.2272049299
      19
 i =       2, E =      -77.8161547337
  C         6.9434557862        8.6780730938        7.4756619418
  C         8.1387269651        7.9558090768        7.3755793114
  C         8.1535618404        6.4428165536        7.2770948797
  C         6.8533624503        5.8222301486        7.8139836337
  C         5.6323867650        6.5116132718        7.1880275813
  C         5.5963658738        8.0057753042        7.5525173079
  H         9.0219687219        6.0423970138        7.8222957793
  H         6.8349785962        4.7435784045        7.6029275310
  H         4.7005058467        6.0290634731        7.5147752952
  H         4.8945201995        8.5705537331        6.9210286555
  O         6.9591961787        9.9912559373        7.5479253991
  C         9.3377425325        8.7105467329        7.3886927675
  O         9.3680630065        9.9880196685        7.4654697536
  H        10.3009482388        8.1765430337        7.3429621951
  H         8.0546655194       10.2451373820        7.5187751007
  H         5.2361579518        8.1426763265        8.5861459904
  H         5.6730829812        6.3990077331        6.0955836602
  H         6.8153772684        5.9303938385        8.9073622262
  H         8.2879314210        6.1343709402        6.2273920119
      19
 i =       3, E =      -77.8161808170
  C         6.9447055813        8.6764592500        7.4757563657
  C         8.1396178234        7.9562827077        7.3757671893
  C         8.1534529026        6.4425765010        7.2769645648
  C         6.8535759571        5.8220669833        7.8138513107
  C         5.6327406255        6.5122462022        7.1882753685
  C         5.5975171840        8.0075824338        7.5527856146
  H         9.0220168918        6.0424496719        7.8217055807
  H         6.8351663113        4.7435354290        7.6029619099
  H         4.7006024193        6.0292031460        7.5149366469
  H         4.8941221492        8.5705396469        6.9212958078
  O         6.9607044715        9.9921144202        7.5479916035
  C         9.3371912998        8.7088723202        7.3890501718
  O         9.3689716428        9.9891622457        7.4664633968
  H        10.3005550942        8.1774681770        7.3434363441
  H         8.0541861714       10.2425034473        7.5186018463
  H         5.2363836520        8.1425755125        8.5864550433
  H         5.6731203594        6.3989692966        6.0956165461
  H         6.8155689131        5.9304157657        8.9073645393
  H         8.2875337107        6.1347841636        6.2272591257
      19
 i =       4, E =      -77.8161973498
  C         6.9449796877        8.6775542833        7.4759260271
  C         8.1396580648        7.9553373941        7.3758198192
  C         8.1535104909        6.4426017786        7.2769085107
  C         6.8536268090        5.8221579465        7.8138990697
  C         5.6328136582        6.5126185691        7.1883711218
  C         5.5978965697        8.0078129620        7.5529085089
  H         9.0220955999        6.0424283866        7.8213931640
  H         6.8352571987        4.7434600573        7.6029521790
  H         4.7007884741        6.0294441007        7.5150180395
  H         4.8940521263        8.5706580651        6.9214684027
  O         6.9612838241        9.9911255185        7.5479684398
  C         9.3377389393        8.7106635026        7.3894291287
  O         9.3694531073        9.9878609888        7.4670087160
  H        10.3005403957        8.1777458862        7.3436950841
  H         8.0540631851       10.2413293824        7.5185465981
  H         5.2366142090        8.1426289531        8.5866078883
  H         5.6731461847        6.3990182460        6.0957377234
  H         6.8156969673        5.9304038633        8.9073123839
  H         8.2873184021        6.1350173889        6.2271168137
      19
 i =       5, E =      -77.8162095508
  C         6.9457958680        8.6763874713        7.4759976182
  C         8.1399850208        7.9557933429        7.3760275158
  C         8.1535874748        6.4424442032        7.2767694078
  C         6.8537071574        5.8221704339        7.8138690459
  C         5.6330732336        6.5131383510        7.1885127719
  C         5.5982809503        8.0084430077        7.5530947777
  H         9.0222802940        6.0423355271        7.8209357713
  H         6.8353779092        4.7434598596        7.6029479513
  H         4.7010494676        6.0298662534        7.5151714319
  H         4.8940232002        8.5707992807        6.9218098139
  O         6.9623628828        9.9915190116        7.5480284285
  C         9.3379264763        8.7092222562        7.3898174443
  O         9.3702494678        9.9887882436        7.4680573141
  H        10.3005864674        8.1782969123        7.3441160047
  H         8.0536539829       10.2396265980        7.5185092941
  H         5.2369948603        8.1427312069        8.5868191942
  H         5.6731941586        6.3991317511        6.0959294791
  H         6.8158995388        5.9304012789        8.9073017350
  H         8.2869924539        6.1353230404        6.2268832122
      19
 i =       6, E =      -77.8162195429
  C         6.9457875667        8.6770496369        7.4761287372
  C         8.1402730309        7.9551058065        7.3760827889
  C         8.1536170076        6.4424796894        7.2767129937
  C         6.8537777520        5.8222270917        7.8138722152
  C         5.6331491997        6.5133645141        7.1886076494
  C         5.5985521498        8.0085508482        7.5531953474
  H         9.0224112466        6.0422602690        7.8206797004
  H         6.8354246480        4.7434693804        7.6029348874
  H         4.7012167118        6.0301534497        7.5152664229
  H         4.8940624086        8.5709560295        6.9219920748
  O         6.9627115476        9.9907954963        7.5480291096
  C         9.3382172633        8.7106944741        7.3901993449
  O         9.3707306960        9.9876592359        7.4686312060
  H        10.3008790454        8.1783717511        7.3443495838
  H         8.0535750502       10.2388654961        7.5185267226
  H         5.2372491754        8.1428339778        8.5869624389
  H         5.6732292057        6.3992368144        6.0960357230
  H         6.8160234584        5.9303950317        8.9072918717
  H         8.2868153384        6.1355036460        6.2267224342
      19
 i =       7, E =      -77.8162261500
  C         6.9459843501        8.6767891099        7.4761784661
  C         8.1404291551        7.9550714993        7.3761875657
  C         8.1537207948        6.4424499320        7.2766377427
  C         6.8538581033        5.8222733030        7.8138675018
  C         5.6332727826        6.5135038879        7.1886917977
  C         5.5986882791        8.0086445733        7.5532951957
  H         9.0225588782        6.0421377168        7.8204390380
  H         6.8354412410        4.7435319401        7.6029129577
  H         4.7013329659        6.0304562260        7.5153884417
  H         4.8941756836        8.5711274965        6.9221922882
  O         6.9629412781        9.9906545885        7.5480680729
  C         9.3385450147        8.7105897223        7.3905132068
  O         9.3711731332        9.9876112564        7.4693039359
  H        10.3012018352        8.1784361540        7.3445866428
  H         8.0534584114       10.2383964392        7.5186139879
  H         5.2375196987        8.1429675645        8.5870986849
  H         5.6732714144        6.3993850705        6.0961254606
  H         6.8161491427        5.9303935714        8.9073013379
  H         8.2866630107        6.1356398945        6.2265612024
      19
 i =       8, E =      -77.8162318561
  C         6.9462841752        8.6763931206        7.4762072887
  C         8.1405489812        7.9552196630        7.3762780638
  C         8.1537909695        6.4423927166        7.2765707428
  C         6.8539107968        5.8222993629        7.8138729080
  C         5.6333739478        6.5136697954        7.1887458503
  C         5.5988058712        8.0087973014        7.5533767530
  H         9.0226576863        6.0420600133        7.8202471903
  H         6.8354690422        4.7435533321        7.6028990217
  H         4.7014169484        6.0306543753        7.5154764330
  H         4.8942274688        8.5712276430        6.9223435416
  O         6.9632570509        9.9907297256        7.5481006155
  C         9.3387370911        8.7100459479        7.3907146166
  O         9.3714971954        9.9879146784        7.4698199699
  H        10.3013272076        8.1785787885        7.3447737024
  H         8.0533116316       10.2379076515        7.5186622572
  H         5.2377096947        8.1430453361        8.5871973498
  H         5.6732990880        6.3994736031        6.0962003051
  H         6.8162444279        5.9303930217        8.9072986728
  H         8.2865415257        6.1357508556        6.2264532767
      19
 i =       9, E =      -77.8162742255
  C         6.9484212388        8.6755571225        7.4769466987
  C         8.1431109122        7.9538020049        7.3772419730
  C         8.1545214235        6.4420727167        7.2757946064
  C         6.8547211045        5.8227041492        7.8138801348
  C         5.6344328105        6.5156773252        7.1895958040
  C         5.6008234614        8.0102454786        7.5544500150
  H         9.0240896135        6.0409387711        7.8176693410
  H         6.8357752336        4.7439021273        7.6026932187
  H         4.7026132595        6.0334186042        7.5166729005
  H         4.8951069202        8.5728047727        6.9243340097
  O         6.9667126767        9.9886973705        7.5484449849
  C         9.3413508546        8.7115292223        7.3940766949
  O         9.3759587948        9.9856299894        7.4767731036
  H        10.3041213883        8.1795674980        7.3472863794
  H         8.0518822031       10.2319875398        7.5194951961
  H         5.2403840206        8.1442069890        8.5886209293
  H         5.6736984112        6.4007806157        6.0971649109
  H         6.8175693540        5.9303891232        8.9073133544
  H         8.2849513634        6.1372596471        6.2248975962
      19
 i =      10, E =      -77.8162880889
  C         6.9489160299        8.6745861714        7.4768969111
  C         8.1428612002        7.9544149410        7.3773553408
  C         8.1547098869        6.4419804791        7.2757323679
  C         6.8547539430        5.8227388483        7.8138816645
  C         5.6345272553        6.5156552758        7.1896345128
  C         5.6007790158        8.0102922857        7.5545181800
  H         9.0241753686        6.0407955369        7.8175267939
  H         6.8357513622        4.7439661124        7.6026629903
  H         4.7025942256        6.0335489669        7.5167754925
  H         4.8952767349        8.5729090354        6.9244652256
  O         6.9666564468        9.9892300570        7.5485146103
  C         9.3418025971        8.7097475593        7.3942052962
  O         9.3759934745        9.9867251458        7.4772620284
  H        10.3042313066        8.1796034683        7.3474493887
  H         8.0518421235       10.2321689670        7.5196969733
  H         5.2405590413        8.1443021969        8.5886921758
  H         5.6737244715        6.4009103390        6.0971960144
  H         6.8176581272        5.9303973999        8.9073312486
  H         8.2849136073        6.1372699313        6.2248166185
      19
 i =      11, E =      -77.8162991110
  C         6.9489075780        8.6749501777        7.4771161580
  C         8.1440064312        7.9538061680        7.3776201437
  C         8.1550858139        6.4419519472        7.2754766445
  C         6.8551054806        5.8228772123        7.8138955007
  C         5.6346697162        6.5156219902        7.1898981968
  C         5.6012621521        8.0099923698        7.5548656493
  H         9.0247506370        6.0400510653        7.8168244372
  H         6.8356059142        4.7442746910        7.6025057746
  H         4.7025806291        6.0342333009        7.5172964397
  H         4.8962065625        8.5736467070        6.9250441222
  O         6.9661852551        9.9885730547        7.5487717485
  C         9.3428119651        8.7105435857        7.3955860956
  O         9.3764958787        9.9852550218        7.4794912315
  H        10.3060916196        8.1788425692        7.3482891777
  H         8.0518901858       10.2332035493        7.5208401314
  H         5.2415439425        8.1448543158        8.5891699658
  H         5.6738670407        6.4016127876        6.0973600041
  H         6.8181549273        5.9304376602        8.9074070157
  H         8.2847471153        6.1374091896        6.2243448636
      19
 i =      12, E =      -77.8163076657
  C         6.9494865047        8.6742523545        7.4770982714
  C         8.1437876792        7.9542778008        7.3777343878
  C         8.1552249060        6.4418417924        7.2754231941
  C         6.8551390770        5.8229001869        7.8139091466
  C         5.6347366255        6.5156979498        7.1899357832
  C         5.6012888742        8.0101060516        7.5549343226
  H         9.0248059350        6.0399270240        7.8166721234
  H         6.8356006791        4.7442852773        7.6024786980
  H         4.7025664176        6.0343045623        7.5173821096
  H         4.8963462462        8.5737188244        6.9251615810
  O         6.9663464909        9.9890149525        7.5488480339
  C         9.3431575585        8.7091648654        7.3957059725
  O         9.3765555654        9.9861067804        7.4799101929
  H        10.3060860478        8.1789584952        7.3484779253
  H         8.0517952114       10.2332151202        7.5210464062
  H         5.2417012257        8.1449161801        8.5892408705
  H         5.6738795477        6.4017045130        6.0974022021
  H         6.8182463298        5.9304455534        8.9074038712
  H         8.2847177688        6.1374265708        6.2242865166
      19
 i =      13, E =      -77.8163149523
  C         6.9499194554        8.6748766362        7.4773916623
  C         8.1448196403        7.9535972587        7.3780182553
  C         8.1554026544        6.4417345747        7.2752321191
  C         6.8553939703        5.8229440473        7.8139045208
  C         5.6348078291        6.5160196163        7.1901990504
  C         5.6020408202        8.0102849716        7.5552736856
  H         9.0252032625        6.0393147452        7.8159911591
  H         6.8355488954        4.7443649706        7.6023588857
  H         4.7026142866        6.0347045034        7.5177708186
  H         4.8970662644        8.5742417329        6.9256446433
  O         6.9668733478        9.9886065613        7.5491088175
  C         9.3437486789        8.7102228153        7.3968476378
  O         9.3771405114        9.9847875843        7.4816502628
  H        10.3071342624        8.1787361813        7.3493797199
  H         8.0516289164       10.2334165508        7.5221148448
  H         5.2425329741        8.1452707298        8.5896614629
  H         5.6739434782        6.4021813935        6.0976077822
  H         6.8187150263        5.9304828104        8.9074178153
  H         8.2845974274        6.1375685092        6.2239363197
      19
 i =      14, E =      -77.8163226959
  C         6.9503562204        8.6742539886        7.4773825989
  C         8.1446216845        7.9540043522        7.3781152171
  C         8.1555217255        6.4416569624        7.2751916339
  C         6.8553965666        5.8229596974        7.8139012514
  C         5.6348839200        6.5160596874        7.1902362326
  C         5.6020610494        8.0103994531        7.5553348260
  H         9.0252417844        6.0392136957        7.8158777947
  H         6.8355434830        4.7443775305        7.6023403033
  H         4.7026268036        6.0347796452        7.5178299349
  H         4.8971858504        8.5743045837        6.9257370045
  O         6.9669631243        9.9889853787        7.5492167785
  C         9.3440438540        8.7090823817        7.3969354999
  O         9.3772233684        9.9855134737        7.4819564961
  H        10.3071258300        8.1788325112        7.3495397070
  H         8.0515687781       10.2334256534        7.5222853232
  H         5.2426642857        8.1453236264        8.5897130065
  H         5.6739460586        6.4022548978        6.0976520941
  H         6.8187878825        5.9304854088        8.9074168406
  H         8.2845770783        6.1375821698        6.2238920604
      19
 i =      15, E =      -77.8163800820
  C         6.9557683464        8.6744011319        7.4801049770
  C         8.1508262485        7.9520473829        7.3812138126
  C         8.1578516780        6.4406743543        7.2734746865
  C         6.8569619419        5.8234181395        7.8135980239
  C         5.6367393001        6.5186062545        7.1927470214
  C         5.6079160148        8.0127452624        7.5585613944
  H         9.0283304793        6.0336415790        7.8101264584
  H         6.8350356665        4.7451506212        7.6013603136
  H         4.7040095996        6.0391713021        7.5209700388
  H         4.9040333818        8.5791804050        6.9300712070
  O         6.9703841747        9.9880728330        7.5546699243
  C         9.3509818652        8.7096775155        7.4063210539
  O         9.3838186442        9.9812133993        7.4961185045
  H        10.3154313895        8.1777368981        7.3582009025
  H         8.0505472718       10.2349573708        7.5321738154
  H         5.2503504799        8.1486990769        8.5933098119
  H         5.6741465013        6.4065176123        6.1000322755
  H         6.8229461553        5.9305826950        8.9073649963
  H         8.2836434496        6.1388880890        6.2210249873
      19
 i =      16, E =      -77.8164036040
  C         6.9566386633        8.6732435815        7.4801570986
  C         8.1502979769        7.9530323918        7.3813411618
  C         8.1579613209        6.4405307804        7.2734785949
  C         6.8571312882        5.8234471599        7.8136649062
  C         5.6368034353        6.5188286891        7.1927222431
  C         5.6077292931        8.0127393027        7.5585547690
  H         9.0282796172        6.0336196947        7.8101211412
  H         6.8350338785        4.7451362292        7.6013343589
  H         4.7039856611        6.0392132337        7.5210320500
  H         4.9041101516        8.5792106012        6.9301087110
  O         6.9706214429        9.9889309633        7.5544974079
  C         9.3513073223        8.7073775620        7.4061748322
  O         9.3835435744        9.9827027470        7.4958990933
  H        10.3151565190        8.1779259236        7.3583484403
  H         8.0502453398       10.2348646243        7.5323294906
  H         5.2503861997        8.1487482074        8.5933741760
  H         5.6741411347        6.4065437702        6.1000299265
  H         6.8229613766        5.9305563893        8.9073295086
  H         8.2836650700        6.1389175772        6.2210296601
      19
 i =      17, E =      -77.8164069278
  C         6.9567441887        8.6738473032        7.4806009411
  C         8.1506997914        7.9527988274        7.3814770625
  C         8.1579172581        6.4406197602        7.2735643193
  C         6.8575274474        5.8234897007        7.8137096702
  C         5.6367857850        6.5192040356        7.1927398281
  C         5.6078543831        8.0126102384        7.5586379900
  H         9.0282355689        6.0335836383        7.8101766251
  H         6.8350184096        4.7451483248        7.6012699948
  H         4.7040585500        6.0393916727        7.5211749208
  H         4.9043657442        8.5794410329        6.9301341718
  O         6.9709214811        9.9888488149        7.5538618511
  C         9.3512607515        8.7081913922        7.4062363736
  O         9.3830843622        9.9821034570        7.4948166094
  H        10.3153129413        8.1777754907        7.3587589674
  H         8.0498194868       10.2347525221        7.5327570170
  H         5.2505343471        8.1489080233        8.5935758937
  H         5.6741328464        6.4066501739        6.1000190801
  H         6.8230299645        5.9304794759        8.9073073954
  H         8.2837452798        6.1390859984        6.2210185083
      19
 i =      18, E =      -77.8164098728
  C         6.9570167373        8.6733615247        7.4806002582
  C         8.1505058985        7.9530929870        7.3816111040
  C         8.1580402080        6.4406220826        7.2735746645
  C         6.8574715468        5.8235166103        7.8136774809
  C         5.6368840767        6.5191807466        7.1927617350
  C         5.6078880959        8.0128203824        7.5587285297
  H         9.0282266745        6.0335679201        7.8101924177
  H         6.8350280098        4.7451801917        7.6012430918
  H         4.7041003329        6.0394731759        7.5212229526
  H         4.9044758787        8.5794990147        6.9301713105
  O         6.9708930581        9.9891677997        7.5537573621
  C         9.3514321860        8.7073773590        7.4061476911
  O         9.3830679530        9.9826833993        7.4946125079
  H        10.3152351347        8.1778486663        7.3589142285
  H         8.0496690813       10.2347497347        7.5328367631
  H         5.2505834810        8.1489479172        8.5936044901
  H         5.6741302520        6.4067046606        6.1000342720
  H         6.8230664600        5.9304580110        8.9073245755
  H         8.2837734017        6.1391506848        6.2210433539
      19
 i =      19, E =      -77.8164115503
  C         6.9570186889        8.6734397255        7.4806512101
  C         8.1505813057        7.9530305968        7.3817147577
  C         8.1580773910        6.4406655266        7.2736046819
  C         6.8574686402        5.8235375778        7.8136622056
  C         5.6369352441        6.5192119531        7.1927903962
  C         5.6079852912        8.0129161303        7.5588002528
  H         9.0282389290        6.0335513340        7.8102263520
  H         6.8350365871        4.7452127590        7.6012121597
  H         4.7041519976        6.0395614250        7.5212741667
  H         4.9045951817        8.5795894163        6.9301964241
  O         6.9708500451        9.9891357044        7.5536429448
  C         9.3514462105        8.7075407738        7.4061281974
  O         9.3830930163        9.9826179496        7.4943491526
  H        10.3152963423        8.1778257890        7.3590732158
  H         8.0495420876       10.2347685246        7.5329115520
  H         5.2506380233        8.1490031454        8.5936586250
  H         5.6741295679        6.4067665526        6.1000504226
  H         6.8231041989        5.9304331813        8.9073301502
  H         8.2838120275        6.1392326635        6.2210619705
      19
 i =      20, E =      -77.8164138756
  C         6.9571536573        8.6743816757        7.4811612192
  C         8.1513849402        7.9526320147        7.3826869980
  C         8.1582546969        6.4409644871        7.2740205977
  C         6.8577862166        5.8237453890        7.8136701235
  C         5.6372800043        6.5199628870        7.1930532213
  C         5.6087716651        8.0133047959        7.5593180601
  H         9.0284054252        6.0333860310        7.8106026038
  H         6.8351332033        4.7455160841        7.6008714579
  H         4.7046212491        6.0404282355        7.5218039361
  H         4.9057813171        8.5805376254        6.9304560598
  O         6.9706332149        9.9888015391        7.5528321774
  C         9.3516031188        8.7093792842        7.4060288339
  O         9.3834171810        9.9819709367        7.4920498898
  H        10.3159144752        8.1776669976        7.3606062537
  H         8.0482646791       10.2350511767        7.5334693791
  H         5.2511806129        8.1496095412        8.5942664196
  H         5.6741427978        6.4074082678        6.1002472737
  H         6.8234515470        5.9301873855        8.9072990610
  H         8.2842420334        6.1400890680        6.2212519484
