      19
 i =       0, E =      -77.8146944942
  C         6.9355328908        8.6857993419        7.4736504846
  C         8.1425353844        7.9558676213        7.3755921635
  C         8.1530190793        6.4416439360        7.2719050883
  C         6.8553222624        5.8220872047        7.8145845857
  C         5.6328007322        6.5102079167        7.1899271167
  C         5.5949141744        8.0027135534        7.5549437471
  H         9.0247222807        6.0387858022        7.8087907541
  H         6.8376893859        4.7431780690        7.6041963997
  H         4.7020345192        6.0258327447        7.5171050097
  H         4.8880502733        8.5679316497        6.9298129023
  O         6.9333059890        9.9853774806        7.5415381617
  C         9.3344087774        8.6985019476        7.3920802110
  O         9.3757098935        9.9909744157        7.4661706893
  H        10.3013686278        8.1796225033        7.3511381477
  H         8.1491684056       10.2597371035        7.5134950716
  H         5.2421585586        8.1377404051        8.5913692513
  H         5.6729887158        6.3971526328        6.0973820818
  H         6.8199662054        5.9308289962        8.9079088490
  H         8.2778177180        6.1391251846        6.2201175021
      19
 i =       1, E =      -77.8154628461
  C         6.9382177310        8.6864859111        7.4740618823
  C         8.1423354910        7.9582391448        7.3762154559
  C         8.1527009335        6.4429028487        7.2724135970
  C         6.8552548740        5.8214459671        7.8140100227
  C         5.6327313109        6.5099619763        7.1903176500
  C         5.5950337574        8.0019166061        7.5551654328
  H         9.0249465128        6.0385880174        7.8086728989
  H         6.8377614486        4.7431873171        7.6042819719
  H         4.7020653733        6.0259296137        7.5171550258
  H         4.8877690583        8.5679711423        6.9298924406
  O         6.9585337489        9.9905953451        7.5403605276
  C         9.3317674082        8.6996931464        7.3923620537
  O         9.3538772466        9.9969062971        7.4696897878
  H        10.3015935328        8.1798251938        7.3514329427
  H         8.1486491317       10.2462983084        7.5126835288
  H         5.2422734937        8.1376393038        8.5915933162
  H         5.6730212561        6.3971531635        6.0973943856
  H         6.8200691826        5.9309291257        8.9079878425
  H         8.2776112468        6.1390336811        6.2196540841
      19
 i =       2, E =      -77.8155407370
  C         6.9392153455        8.6896113914        7.4742721006
  C         8.1423485732        7.9557213548        7.3761490999
  C         8.1528734032        6.4430404003        7.2721404351
  C         6.8553082130        5.8218007580        7.8143720099
  C         5.6330124124        6.5098736913        7.1900746191
  C         5.5955592185        8.0035956300        7.5552531655
  H         9.0248202577        6.0386944570        7.8085527548
  H         6.8378175749        4.7429221808        7.6042132446
  H         4.7019563113        6.0259519692        7.5172391001
  H         4.8878229722        8.5678258472        6.9300601727
  O         6.9591130644        9.9882463870        7.5403327666
  C         9.3314807739        8.7032815745        7.3928308368
  O         9.3539802449        9.9946243488        7.4699215540
  H        10.3007861871        8.1812727483        7.3515896310
  H         8.1487268374       10.2436745086        7.5125406865
  H         5.2423082566        8.1376006601        8.5916578500
  H         5.6729997500        6.3971721716        6.0975280751
  H         6.8200782291        5.9308730619        8.9077567413
  H         8.2775194677        6.1392856638        6.2199462712
      19
 i =       3, E =      -77.8155774580
  C         6.9406368376        8.6873983021        7.4742326531
  C         8.1428244178        7.9562973125        7.3763140941
  C         8.1530011658        6.4426556402        7.2720921779
  C         6.8554447903        5.8217331735        7.8142685718
  C         5.6333456116        6.5105188771        7.1902400393
  C         5.5965309782        8.0053514998        7.5554313850
  H         9.0247424745        6.0387629518        7.8083698973
  H         6.8379296882        4.7429153440        7.6042132593
  H         4.7019798235        6.0261558389        7.5173210073
  H         4.8876589808        8.5678853216        6.9301295030
  O         6.9607190002        9.9895857215        7.5405661454
  C         9.3304372129        8.7010111528        7.3931149385
  O         9.3535953194        9.9964146440        7.4705071796
  H        10.2995237337        8.1837983917        7.3518824301
  H         8.1488419399       10.2400138799        7.5123641218
  H         5.2423965221        8.1376431840        8.5917763968
  H         5.6730178413        6.3971706154        6.0975081055
  H         6.8201011940        5.9308742355        8.9077638141
  H         8.2773898202        6.1394710087        6.2200425478
      19
 i =       4, E =      -77.8156027762
  C         6.9405859529        8.6892227054        7.4744253628
  C         8.1428381411        7.9549452217        7.3763102558
  C         8.1530065086        6.4426680576        7.2721257387
  C         6.8554883635        5.8218104873        7.8142977481
  C         5.6333584631        6.5108817487        7.1903022204
  C         5.5969372263        8.0055114397        7.5554797936
  H         9.0248046017        6.0387382330        7.8083241014
  H         6.8379715766        4.7428860864        7.6041945716
  H         4.7021338119        6.0264200535        7.5173485486
  H         4.8876953147        8.5680683101        6.9301583549
  O         6.9613786774        9.9880388569        7.5406069227
  C         9.3304242716        8.7034750204        7.3934663406
  O         9.3535690512        9.9948293799        7.4707564363
  H        10.2994033919        8.1847463351        7.3520244085
  H         8.1489595587       10.2383948173        7.5123114772
  H         5.2425377928        8.1377765302        8.5918442644
  H         5.6730339138        6.3972360266        6.0975867767
  H         6.8201325832        5.9308573541        8.9077251231
  H         8.2773429272        6.1395675114        6.2200004718
      19
 i =       5, E =      -77.8156150406
  C         6.9413217485        8.6874216531        7.4744411993
  C         8.1429124683        7.9556067140        7.3765064415
  C         8.1531208889        6.4423619607        7.2721018989
  C         6.8554999834        5.8218250584        7.8142763361
  C         5.6336234174        6.5113965701        7.1903693297
  C         5.5971954187        8.0062033358        7.5555709110
  H         9.0249114614        6.0386515110        7.8082452492
  H         6.8380202883        4.7429191616        7.6041700315
  H         4.7023177184        6.0268648358        7.5174278777
  H         4.8878071651        8.5682618166        6.9303021739
  O         6.9624893337        9.9888515804        7.5408740418
  C         9.3299744823        8.7017291367        7.3937036086
  O         9.3533097805        9.9962487510        7.4712895473
  H        10.2990751795        8.1864680263        7.3522813892
  H         8.1490787520       10.2360768853        7.5122690713
  H         5.2427743178        8.1379854389        8.5918982523
  H         5.6730635766        6.3973665637        6.0977151862
  H         6.8201864863        5.9308455026        8.9077138808
  H         8.2772657795        6.1396480877        6.2199480981
      19
 i =       6, E =      -77.8156276554
  C         6.9411074047        8.6887573833        7.4746132695
  C         8.1430312968        7.9545540184        7.3765237093
  C         8.1531457688        6.4423910214        7.2721314791
  C         6.8555360536        5.8218804592        7.8142806795
  C         5.6336356013        6.5116128929        7.1904341939
  C         5.5974345552        8.0062306941        7.5556110755
  H         9.0249978468        6.0385871310        7.8082175410
  H         6.8380201290        4.7429359294        7.6041472005
  H         4.7024601484        6.0271640386        7.5174678662
  H         4.8879042233        8.5684727770        6.9303412245
  O         6.9628519920        9.9876010600        7.5409638537
  C         9.3300040553        8.7036477104        7.3939957583
  O         9.3533681994        9.9950079861        7.4715265001
  H        10.2992579764        8.1871086538        7.3524102420
  H         8.1491696747       10.2350571308        7.5122856381
  H         5.2429324311        8.1381515579        8.5919619599
  H         5.6730903716        6.3974785217        6.0977780087
  H         6.8202207166        5.9308332486        8.9077058663
  H         8.2772381484        6.1397027508        6.2198970107
      19
 i =       7, E =      -77.8156295819
  C         6.9410949288        8.6886349009        7.4746685425
  C         8.1431420483        7.9544794110        7.3766227874
  C         8.1532346671        6.4423172758        7.2720852462
  C         6.8555817170        5.8219081844        7.8142838659
  C         5.6337244320        6.5117209172        7.1904949834
  C         5.5974596965        8.0062671588        7.5556825475
  H         9.0251110515        6.0384499708        7.8080613806
  H         6.8380171680        4.7429805089        7.6041307670
  H         4.7025514826        6.0274235277        7.5175576496
  H         4.8879755572        8.5686420610        6.9304926437
  O         6.9628684822        9.9873744401        7.5410358464
  C         9.3300012619        8.7035118409        7.3942011682
  O         9.3532926012        9.9951822467        7.4718420184
  H        10.2994892339        8.1877301206        7.3526245781
  H         8.1503364879       10.2345254180        7.5123021506
  H         5.2431468599        8.1382785092        8.5920695513
  H         5.6731221174        6.3976045667        6.0978451657
  H         6.8203000363        5.9308300644        8.9077195364
  H         8.2771255108        6.1397598335        6.2197907958
      19
 i =       8, E =      -77.8156335625
  C         6.9412969024        8.6880530440        7.4746795776
  C         8.1432161704        7.9547298614        7.3767146095
  C         8.1532967477        6.4422050372        7.2720512149
  C         6.8556071860        5.8219213198        7.8142909641
  C         5.6338193932        6.5118661731        7.1905243998
  C         5.5974981291        8.0064207812        7.5557335316
  H         9.0251821489        6.0383639776        7.8079667351
  H         6.8380255324        4.7430013027        7.6041185108
  H         4.7026050383        6.0275956653        7.5176190650
  H         4.8880230183        8.5687386105        6.9305976795
  O         6.9630710966        9.9875878349        7.5411139427
  C         9.3298933897        8.7028346988        7.3943231328
  O         9.3531625570        9.9957252728        7.4720913992
  H        10.2995098458        8.1883294124        7.3527753878
  H         8.1510080063       10.2339152307        7.5123050920
  H         5.2432828061        8.1383625157        8.5921320367
  H         5.6731407842        6.3976818619        6.0978997718
  H         6.8203493332        5.9308269459        8.9077206478
  H         8.2770570707        6.1397977141        6.2197334945
      19
 i =       9, E =      -77.8156205218
  C         6.9416093423        8.6891215536        7.4754527142
  C         8.1446897444        7.9526131391        7.3775731515
  C         8.1539513539        6.4415054205        7.2718105755
  C         6.8560393526        5.8222121989        7.8143585935
  C         5.6344992354        6.5135437879        7.1910913116
  C         5.5985787531        8.0073319462        7.5563849062
  H         9.0262028000        6.0371694396        7.8067819498
  H         6.8380462416        4.7432809322        7.6039346288
  H         4.7034632037        6.0299988810        7.5183880005
  H         4.8887694575        8.5703585813        6.9318273471
  O         6.9650151091        9.9841696673        7.5419688849
  C         9.3292831060        8.7048022123        7.3965773758
  O         9.3520651064        9.9953263283        7.4751840891
  H        10.3010030422        8.1952480768        7.3547266414
  H         8.1602278597       10.2266247906        7.5124985830
  H         5.2451472076        8.1396152629        8.5930714117
  H         5.6734228324        6.3988218372        6.0985514551
  H         6.8210102965        5.9307723470        8.9077698086
  H         8.2762270738        6.1403316870        6.2189146861
      19
 i =      10, E =      -77.8156417215
  C         6.9420174474        8.6874491741        7.4754032571
  C         8.1446657625        7.9535805143        7.3777065279
  C         8.1540948615        6.4413603177        7.2717802356
  C         6.8560294162        5.8222114089        7.8143592385
  C         5.6346013105        6.5135141052        7.1910901842
  C         5.5984337286        8.0074452049        7.5564304330
  H         9.0262392856        6.0370539119        7.8067544848
  H         6.8379969717        4.7433253448        7.6039116220
  H         4.7034039131        6.0300799095        7.5184522194
  H         4.8888865801        8.5704228374        6.9319004013
  O         6.9648712351        9.9852685136        7.5421052182
  C         9.3294462477        8.7026838658        7.3965403097
  O         9.3519738399        9.9968568104        7.4753689458
  H        10.3011281453        8.1954364750        7.3548183653
  H         8.1605304265       10.2269185594        7.5126411731
  H         5.2452180953        8.1396939721        8.5930920513
  H         5.6734412619        6.3989257999        6.0985624001
  H         6.8210382153        5.9307727791        8.9077921634
  H         8.2762437020        6.1402852207        6.2189252412
      19
 i =      11, E =      -77.8156370431
  C         6.9416977218        8.6886151042        7.4758118683
  C         8.1455390613        7.9529269905        7.3779856398
  C         8.1544161901        6.4413558443        7.2718171156
  C         6.8561553981        5.8222964593        7.8143989937
  C         5.6345322511        6.5133532665        7.1912188973
  C         5.5984732518        8.0069625638        7.5566259740
  H         9.0265238848        6.0364482662        7.8066605261
  H         6.8377171896        4.7434983458        7.6037889612
  H         4.7032524565        6.0305133379        7.5187218643
  H         4.8895024039        8.5710290785        6.9321134693
  O         6.9638027114        9.9841225029        7.5423773105
  C         9.3302471356        8.7039648282        7.3970934561
  O         9.3522599245        9.9962155344        7.4760958933
  H        10.3029094658        8.1955146586        7.3552530554
  H         8.1625947074       10.2286061377        7.5134152198
  H         5.2456159259        8.1401623690        8.5933466336
  H         5.6735467638        6.3994880468        6.0985903454
  H         6.8211943924        5.9307568053        8.9078795817
  H         8.2763665875        6.1401453794        6.2188994581
      19
 i =      12, E =      -77.8156464591
  C         6.9421034582        8.6874623769        7.4757837559
  C         8.1455348975        7.9536302527        7.3781019624
  C         8.1545043731        6.4412427907        7.2718167621
  C         6.8561599627        5.8222977074        7.8144120034
  C         5.6345960079        6.5134151014        7.1912245370
  C         5.5984717822        8.0071211038        7.5566690903
  H         9.0265452034        6.0363470687        7.8066366848
  H         6.8376905597        4.7435100659        7.6037708286
  H         4.7032012791        6.0305372565        7.5187641541
  H         4.8895996063        8.5710632039        6.9321756736
  O         6.9638563839        9.9849122818        7.5424496651
  C         9.3303759679        8.7025458916        7.3971030012
  O         9.3521579829        9.9972994303        7.4762957544
  H        10.3028793743        8.1957729135        7.3553472084
  H         8.1629575853       10.2286831996        7.5135357773
  H         5.2456616430        8.1402050452        8.5933728107
  H         5.6735523089        6.3995546939        6.0986098296
  H         6.8212184715        5.9307537458        8.9078822083
  H         8.2763906717        6.1401172541        6.2189138958
      19
 i =      13, E =      -77.8156423145
  C         6.9422429622        8.6886755550        7.4761149338
  C         8.1463557613        7.9530776780        7.3783751818
  C         8.1546854840        6.4412506500        7.2719264560
  C         6.8562481709        5.8223545944        7.8144426202
  C         5.6345142038        6.5136129718        7.1913723573
  C         5.5989284419        8.0071307899        7.5568696110
  H         9.0267131825        6.0358552738        7.8065672499
  H         6.8375416692        4.7435605495        7.6036853310
  H         4.7031145986        6.0307215934        7.5189107635
  H         4.8901120600        8.5714332194        6.9323684240
  O         6.9638663927        9.9840759441        7.5425480189
  C         9.3307670415        8.7039277266        7.3976629956
  O         9.3523420439        9.9968482318        7.4771173517
  H        10.3036643399        8.1963449059        7.3557699891
  H         8.1649829386       10.2291997055        7.5141489156
  H         5.2459345169        8.1404676766        8.5935718917
  H         5.6735860286        6.3999067904        6.0986887105
  H         6.8213397647        5.9307276007        8.9079142288
  H         8.2765297594        6.1400580637        6.2189495793
      19
 i =      14, E =      -77.8156495933
  C         6.9425338179        8.6878262324        7.4760997176
  C         8.1463333148        7.9535874196        7.3784683973
  C         8.1547736968        6.4411751321        7.2719214011
  C         6.8562325213        5.8223627205        7.8144413950
  C         5.6345821447        6.5136385818        7.1913823771
  C         5.5989089137        8.0072529398        7.5569100069
  H         9.0267242110        6.0357770553        7.8065571371
  H         6.8375256859        4.7435790867        7.6036723495
  H         4.7031032854        6.0307627958        7.5189335486
  H         4.8902061603        8.5714649893        6.9324196248
  O         6.9639249239        9.9846818120        7.5426164806
  C         9.3308513776        8.7028861527        7.3976860861
  O         9.3523269890        9.9976941052        7.4772971576
  H        10.3036614802        8.1965491802        7.3558460928
  H         8.1652830941       10.2292335220        7.5142449282
  H         5.2459842608        8.1405039102        8.5935823917
  H         5.6735855494        6.3999602439        6.0987161917
  H         6.8213556756        5.9307224768        8.9079218227
  H         8.2765502909        6.1400467458        6.2189737143
      19
 i =      15, E =      -77.8156874146
  C         6.9452400007        8.6906201659        7.4787093641
  C         8.1515272136        7.9537090539        7.3815165090
  C         8.1572197718        6.4409069356        7.2727335651
  C         6.8565425055        5.8231120453        7.8144957330
  C         5.6353225390        6.5150336484        7.1926712057
  C         5.6018047206        8.0082546409        7.5588474101
  H         9.0279085508        6.0314505926        7.8064060636
  H         6.8365055912        4.7444885224        7.6029465049
  H         4.7033656861        6.0332898933        7.5198881872
  H         4.8954237397        8.5747848717        6.9342954909
  O         6.9654746292        9.9837294322        7.5445159716
  C         9.3343348886        8.7055427067        7.4027156543
  O         9.3562276135       10.0024353850        7.4863684817
  H        10.3098148669        8.2030055037        7.3598283885
  H         8.1839283838       10.2323621818        7.5197799229
  H         5.2489378938        8.1429124598        8.5950063129
  H         5.6736429518        6.4030704812        6.0999909302
  H         6.8222488872        5.9303512372        8.9082543421
  H         8.2779142649        6.1399533933        6.2198158290
      19
 i =      16, E =      -77.8156946416
  C         6.9455618550        8.6897945808        7.4787230227
  C         8.1516394060        7.9544661182        7.3816061304
  C         8.1571505288        6.4409092320        7.2728406246
  C         6.8567428570        5.8231124458        7.8145769072
  C         5.6354026247        6.5152921515        7.1926576215
  C         5.6019186935        8.0083946437        7.5588193314
  H         9.0279193917        6.0314487063        7.8064569194
  H         6.8365374124        4.7445108733        7.6029233588
  H         4.7033469697        6.0333129763        7.5199386503
  H         4.8954334539        8.5748479419        6.9342749385
  O         6.9656474301        9.9843592391        7.5446068033
  C         9.3345851279        8.7048080844        7.4028059420
  O         9.3563598044       10.0030758362        7.4866884639
  H        10.3096387951        8.2031677381        7.3599067812
  H         8.1841123675       10.2323933625        7.5199248628
  H         5.2489580163        8.1429451287        8.5951105220
  H         5.6736572763        6.4030860534        6.0999545156
  H         6.8222468007        5.9303447037        8.9082178159
  H         8.2779630951        6.1399972728        6.2197668233
      19
 i =      17, E =      -77.8157005894
  C         6.9459543792        8.6902352399        7.4789418610
  C         8.1521829904        7.9549769867        7.3817876076
  C         8.1571529583        6.4412226789        7.2730694504
  C         6.8571342851        5.8232203584        7.8146996141
  C         5.6355168921        6.5157874849        7.1926761131
  C         5.6022901575        8.0086593634        7.5588394583
  H         9.0279293696        6.0314888641        7.8066084310
  H         6.8366521783        4.7445914262        7.6028484526
  H         4.7034477114        6.0334847325        7.5200487098
  H         4.8955528483        8.5750931577        6.9342200806
  O         6.9661073248        9.9843581278        7.5448222254
  C         9.3351466558        8.7054830362        7.4032949833
  O         9.3571522152       10.0032842825        7.4876544786
  H        10.3096105349        8.2033446546        7.3601400606
  H         8.1847399047       10.2325560662        7.5204113385
  H         5.2490955702        8.1430584952        8.5953327510
  H         5.6737162358        6.4031652105        6.0998778151
  H         6.8222513549        5.9303237547        8.9082066601
  H         8.2780961575        6.1402225378        6.2197508297
      19
 i =      18, E =      -77.8157031560
  C         6.9461328195        8.6901500041        7.4789979752
  C         8.1523034125        7.9551277814        7.3818784431
  C         8.1573139258        6.4413457384        7.2730542014
  C         6.8571092323        5.8233102642        7.8146673931
  C         5.6356003845        6.5158099416        7.1926823448
  C         5.6023382587        8.0088399165        7.5588992865
  H         9.0279268125        6.0315224187        7.8066514369
  H         6.8367093520        4.7446537684        7.6028192629
  H         4.7035365770        6.0335992544        7.5200758753
  H         4.8956552204        8.5751667923        6.9342439813
  O         6.9663012998        9.9846339643        7.5449357450
  C         9.3352489122        8.7054347109        7.4034641996
  O         9.3574276109       10.0037059375        7.4880199236
  H        10.3097249356        8.2033814796        7.3602313814
  H         8.1849526112       10.2326285561        7.5206121190
  H         5.2491825862        8.1431046813        8.5953327516
  H         5.6737426965        6.4032178203        6.0998990043
  H         6.8222640367        5.9303209105        8.9082523256
  H         8.2781329690        6.1403377327        6.2198370619
      19
 i =      19, E =      -77.8157057832
  C         6.9462674390        8.6903057815        7.4790809373
  C         8.1524561925        7.9552279792        7.3819718815
  C         8.1574285196        6.4414814138        7.2730774787
  C         6.8571344556        5.8234032390        7.8146556425
  C         5.6356753302        6.5158873308        7.1926921217
  C         5.6024391416        8.0089759875        7.5589388147
  H         9.0279430678        6.0315560005        7.8067073344
  H         6.8367738086        4.7447322104        7.6027850423
  H         4.7036251408        6.0337205959        7.5201099339
  H         4.8957617909        8.5752668114        6.9342602953
  O         6.9665157867        9.9847465902        7.5450527447
  C         9.3354170796        8.7056596144        7.4036708184
  O         9.3577505284       10.0039544362        7.4884207321
  H        10.3098512775        8.2034210790        7.3603357429
  H         8.1851863131       10.2327298906        7.5208432076
  H         5.2492730532        8.1431648911        8.5953572648
  H         5.6737731092        6.4032786017        6.0999162591
  H         6.8222787509        5.9303190096        8.9082801966
  H         8.2781847131        6.1404637970        6.2199000997
      19
 i =      20, E =      -77.8157309626
  C         6.9475780388        8.6920125561        7.4799573520
  C         8.1540947290        7.9567247778        7.3829466920
  C         8.1581634477        6.4427345075        7.2736085430
  C         6.8577791607        5.8242814633        7.8147227833
  C         5.6364025694        6.5170772197        7.1928020484
  C         5.6036727937        8.0101032550        7.5591572674
  H         9.0282587465        6.0318777341        7.8073146319
  H         6.8374422499        4.7456263759        7.6024136247
  H         4.7044063560        6.0349118870        7.5204990120
  H         4.8968185108        8.5763693777        6.9344037049
  O         6.9686814304        9.9856939028        7.5462630016
  C         9.3374063162        8.7081448323        7.4057844154
  O         9.3609488507       10.0060843994        7.4924174606
  H        10.3110013816        8.2039999192        7.3614402096
  H         8.1874642597       10.2339202400        7.5232680837
  H         5.2501550638        8.1438431074        8.5957223652
  H         5.6740949101        6.4039283916        6.1000465240
  H         6.8224417521        5.9303301090        8.9083782110
  H         8.2788000820        6.1417166838        6.2202943821
